LTspice 26.0.1 for Windows
Circuit: C:\Users\Mike\Documents\AnalogEQ-Project\Simulation\Shelving\shelves.net
Start Time: Thu Apr 23 01:13:16 2026

.step travel_2=0 travel_3=0
solver = Normal
Maximum thread count: 20
tnom = 27
temp = 27
method = trap
Direct Newton iteration succeeded in finding operating point.

.step travel_2=0.5 travel_3=0
Direct Newton iteration succeeded in finding operating point.

.step travel_2=1 travel_3=0
Direct Newton iteration succeeded in finding operating point.

.step travel_2=0 travel_3=0.5
Direct Newton iteration succeeded in finding operating point.

.step travel_2=0.5 travel_3=0.5
Direct Newton iteration succeeded in finding operating point.

.step travel_2=1 travel_3=0.5
Direct Newton iteration succeeded in finding operating point.

.step travel_2=0 travel_3=1
Direct Newton iteration succeeded in finding operating point.

.step travel_2=0.5 travel_3=1
Direct Newton iteration succeeded in finding operating point.

.step travel_2=1 travel_3=1
Direct Newton iteration succeeded in finding operating point.
Total elapsed time: 0.228 seconds.

Files loaded:
C:\Users\Mike\Documents\AnalogEQ-Project\Simulation\Shelving\shelves.net
C:\Users\Mike\AppData\Local\LTspice\lib\sub\ne5532.txt

