LTspice 26.0.1 for Windows
Circuit: C:\Users\Mike\Documents\AnalogEQ-Project\sim\HPF\hpf_math\hpf_math.net
Start Time: Fri Mar 13 16:39:18 2026

.step r2=1000
solver = Normal
Maximum thread count: 20
tnom = 27
temp = 27
method = trap
.OP point found by inspection.
.OP point found by inspection.

.step r2=3000
.OP point found by inspection.
.OP point found by inspection.

.step r2=5000
.OP point found by inspection.
.OP point found by inspection.

.step r2=7000
.OP point found by inspection.
.OP point found by inspection.

.step r2=9000
.OP point found by inspection.
.OP point found by inspection.

.step r2=11000
.OP point found by inspection.
.OP point found by inspection.
Total elapsed time: 0.130 seconds.

Files loaded:
C:\Users\Mike\Documents\AnalogEQ-Project\sim\HPF\hpf_math\hpf_math.net
C:\Users\Mike\AppData\Local\LTspice\lib\sub\opamp.sub

