LTspice 26.0.1 for Windows
Circuit: C:\Users\Mike\Documents\AnalogEQ-Project\sim\Bell\bell_math.net
Start Time: Fri Mar 13 15:54:42 2026

.step r=1000 rq=660
solver = Normal
Maximum thread count: 20
tnom = 27
temp = 27
method = trap
.OP point found by inspection.
.OP point found by inspection.

.step r=10000 rq=660
.OP point found by inspection.
.OP point found by inspection.

.step r=100000 rq=660
.OP point found by inspection.
.OP point found by inspection.

.step r=1000 rq=4800
.OP point found by inspection.
.OP point found by inspection.

.step r=10000 rq=4800
.OP point found by inspection.
.OP point found by inspection.

.step r=100000 rq=4800
.OP point found by inspection.
.OP point found by inspection.
Total elapsed time: 0.123 seconds.

Files loaded:
C:\Users\Mike\Documents\AnalogEQ-Project\sim\Bell\bell_math.net
C:\Users\Mike\AppData\Local\LTspice\lib\sub\opamp.sub

