LTspice 26.0.1 for Windows
Circuit: C:\Users\Mike\Documents\AnalogEQ-Project\sim\Shelving\shelf_real.net
Start Time: Fri Mar 13 17:51:24 2026
solver = Normal
Maximum thread count: 20
tnom = 27
temp = 27
method = trap
Direct Newton iteration failed to find operating point.
Starting Gmin stepping
Gmin stepping failed to find operating point. Use".option gminsteps=0" to skip all Gmin stepping.
Starting source stepping with srcstepmethod=0
Source stepping succeeded in finding the operating point.

Total elapsed time: 0.055 seconds.

Files loaded:
C:\Users\Mike\Documents\AnalogEQ-Project\sim\Shelving\shelf_real.net
C:\Users\Mike\AppData\Local\LTspice\lib\sub\opamp.sub
C:\Users\Mike\AppData\Local\LTspice\lib\sub\TL072.301

