LTspice 26.0.1 for Windows
Circuit: C:\Users\Mike\Documents\AnalogEQ-Project\sim\LPF\lpf_math\lpf_math.net
Start Time: Fri Mar 13 17:26:04 2026

.step r=2000
solver = Normal
Maximum thread count: 20
tnom = 27
temp = 27
method = trap
.OP point found by inspection.
.OP point found by inspection.

.step r=2500
.OP point found by inspection.
.OP point found by inspection.

.step r=3000
.OP point found by inspection.
.OP point found by inspection.
Total elapsed time: 0.070 seconds.

Files loaded:
C:\Users\Mike\Documents\AnalogEQ-Project\sim\LPF\lpf_math\lpf_math.net
C:\Users\Mike\AppData\Local\LTspice\lib\sub\opamp.sub

