LTspice 26.0.1 for Windows
Circuit: C:\Users\Mike\Documents\AnalogEQ-Project\sim\Power\acac_doubler.net
Start Time: Tue Apr 14 23:57:40 2026
solver = Normal
Maximum thread count: 20
tnom = 27
temp = 27
method = trap
.OP point found by inspection.
.OP point found by inspection.
Total elapsed time: 3.526 seconds.

Files loaded:
C:\Users\Mike\Documents\AnalogEQ-Project\sim\Power\acac_doubler.net
C:\Users\Mike\AppData\Local\LTspice\lib\cmp\standard.dio
C:\Users\Mike\Documents\AnalogEQ-Project\sim\Power\LM7818.txt
C:\Users\Mike\Documents\AnalogEQ-Project\sim\Power\LM7918.txt

