LTspice 26.0.1 for Windows
Circuit: C:\Users\Mike\Documents\AnalogEQ-Project\Simulation\Power\Draft1.net
Start Time: Sat Apr 25 02:16:07 2026
solver = Normal
Maximum thread count: 20
tnom = 27
temp = 27
method = trap
WARNING: Node n002 is floating.

.OP point found by inspection.
.OP point found by inspection.
Total elapsed time: 0.041 seconds.

Files loaded:
C:\Users\Mike\Documents\AnalogEQ-Project\Simulation\Power\Draft1.net

