LTspice 26.0.1 for Windows
Circuit: C:\Users\Mike\Documents\AnalogEQ-Project\sim\Power\pifilter.net
Start Time: Tue Mar 31 11:14:44 2026
solver = Normal
Maximum thread count: 20
tnom = 27
temp = 27
method = trap
WARNING: Node n002 is floating.

Direct Newton iteration succeeded in finding operating point.
Total elapsed time: 0.038 seconds.

Files loaded:
C:\Users\Mike\Documents\AnalogEQ-Project\sim\Power\pifilter.net

