LTspice 26.0.1 for Windows
Circuit: C:\Users\Mike\Documents\AnalogEQ-Project\Simulation\Bell\bell.net
Start Time: Fri Apr 17 13:20:59 2026

.step posq=0
solver = Normal
Maximum thread count: 20
tnom = 27
temp = 27
method = trap
Early termination of direct N-R iteration.
Direct Newton iteration failed to find operating point.
Starting Gmin stepping
Gmin stepping failed to find operating point. Use".option gminsteps=0" to skip all Gmin stepping.
Starting source stepping with srcstepmethod=0
Source stepping succeeded in finding the operating point.


.step posq=0.1
Direct Newton iteration failed to find operating point.
Starting Gmin stepping
Gmin stepping failed to find operating point. Use".option gminsteps=0" to skip all Gmin stepping.
Starting source stepping with srcstepmethod=0
Source stepping succeeded in finding the operating point.


.step posq=0.5
Direct Newton iteration failed to find operating point.
Starting Gmin stepping
Gmin stepping failed to find operating point. Use".option gminsteps=0" to skip all Gmin stepping.
Starting source stepping with srcstepmethod=0
Source stepping succeeded in finding the operating point.


.step posq=1
Direct Newton iteration failed to find operating point.
Starting Gmin stepping
Gmin stepping failed to find operating point. Use".option gminsteps=0" to skip all Gmin stepping.
Starting source stepping with srcstepmethod=0
Source stepping succeeded in finding the operating point.

Total elapsed time: 0.902 seconds.

Files loaded:
C:\Users\Mike\Documents\AnalogEQ-Project\Simulation\Bell\bell.net
C:\Users\Mike\AppData\Local\LTspice\lib\sub\TL072.301

