LTspice 26.0.1 for Windows
Circuit: C:\Users\Mike\Documents\AnalogEQ-Project\Simulation\Bell\param_eq.net
Start Time: Wed Apr 22 23:02:58 2026

.step posf=0
solver = Normal
Maximum thread count: 20
tnom = 27
temp = 27
method = trap
Direct Newton iteration failed to find operating point.
Starting Gmin stepping
Gmin stepping failed to find operating point. Use".option gminsteps=0" to skip all Gmin stepping.
Starting source stepping with srcstepmethod=0
Source stepping succeeded in finding the operating point.


.step posf=0.5
Direct Newton iteration failed to find operating point.
Starting Gmin stepping
Gmin stepping failed to find operating point. Use".option gminsteps=0" to skip all Gmin stepping.
Starting source stepping with srcstepmethod=0
Source stepping succeeded in finding the operating point.


.step posf=0.9
Direct Newton iteration failed to find operating point.
Starting Gmin stepping
Gmin stepping failed to find operating point. Use".option gminsteps=0" to skip all Gmin stepping.
Starting source stepping with srcstepmethod=0
Source stepping succeeded in finding the operating point.


.step posf=1
Direct Newton iteration failed to find operating point.
Starting Gmin stepping
Gmin stepping failed to find operating point. Use".option gminsteps=0" to skip all Gmin stepping.
Starting source stepping with srcstepmethod=0
Source stepping succeeded in finding the operating point.

Total elapsed time: 0.961 seconds.

Files loaded:
C:\Users\Mike\Documents\AnalogEQ-Project\Simulation\Bell\param_eq.net
C:\Users\Mike\AppData\Local\LTspice\lib\sub\LTC.lib

